NeoChargeProject/ev+ev/Different_Branches/ev+ev_diff_branches.glm
//	Copyright (C) 2008 Battelle Memorial Institute

// 4 Node Feeder: Balanced step-down grY-grY

/////////////////////////////////////////////
// BEGIN
/////////////////////////////////////////////

clock {
	timestamp '2020-01-01 0:00:00';
    stoptime '2020-01-02 0:10:00';
//    timezone US/OR/Portland;
}
// Schedule
schedule demand {
     0-9 0 * * * 0.00;
     10-19 0 * * * 0.00;
     20-29 0 * * * 0.00;
     30-39 0 * * * 0.00;
     40-49 0 * * * 0.00;
     50-59 0 * * * 0.00;
     0-9 1 * * * 0.00;
     10-19 1 * * * 0.00;
     20-29 1 * * * 0.00;
     30-39 1 * * * 0.00;
     40-49 1 * * * 0.00;
     50-59 1 * * * 0.00;
     0-9 2 * * * 0.00;
     10-19 2 * * * 0.00;
     20-29 2 * * * 0.00;
     30-39 2 * * * 0.39;
     40-49 2 * * * 0.00;
     50-59 2 * * * 0.01;
     0-9 3 * * * 0.00;
     10-19 3 * * * 0.00;
     20-29 3 * * * 0.00;
     30-39 3 * * * 0.00;
     40-49 3 * * * 0.00;
     50-59 3 * * * 0.32;
     0-9 4 * * * 0.00;
     10-19 4 * * * 0.00;
     20-29 4 * * * 0.00;
     30-39 4 * * * 0.13;
     40-49 4 * * * 0.00;
     50-59 4 * * * 0.09;
     0-9 5 * * * 0.23;
     10-19 5 * * * 0.00;
     20-29 5 * * * 0.00;
     30-39 5 * * * 0.00;
     40-49 5 * * * 0.00;
     50-59 5 * * * 0.48;
     0-9 6 * * * 0.88;
     10-19 6 * * * 0.00;
     20-29 6 * * * 0.00;
     30-39 6 * * * 0.00;
     40-49 6 * * * 0.00;
     50-59 6 * * * 0.00;
     0-9 7 * * * 0.00;
     10-19 7 * * * 0.00;
     20-29 7 * * * 0.00;
     30-39 7 * * * 0.00;
     40-49 7 * * * 0.00;
     50-59 7 * * * 0.00;
     0-9 8 * * * 0.00;
     10-19 8 * * * 0.00;
     20-29 8 * * * 0.00;
     30-39 8 * * * 0.61;
     40-49 8 * * * 0.00;
     50-59 8 * * * 0.00;
     0-9 9 * * * 0.00;
     10-19 9 * * * 0.00;
     20-29 9 * * * 0.00;
     30-39 9 * * * 0.00;
     40-49 9 * * * 0.00;
     50-59 9 * * * 0.00;
     0-9 10 * * * 0.00;
     10-19 10 * * * 0.00;
     20-29 10 * * * 0.00;
     30-39 10 * * * 0.00;
     40-49 10 * * * 0.00;
     50-59 10 * * * 0.00;
     0-9 11 * * * 0.00;
     10-19 11 * * * 0.00;
     20-29 11 * * * 0.00;
     30-39 11 * * * 0.00;
     40-49 11 * * * 0.00;
     50-59 11 * * * 0.00;
     0-9 12 * * * 0.00;
     10-19 12 * * * 0.00;
     20-29 12 * * * 0.00;
     30-39 12 * * * 0.00;
     40-49 12 * * * 0.00;
     50-59 12 * * * 0.00;
     0-9 13 * * * 0.00;
     10-19 13 * * * 0.00;
     20-29 13 * * * 0.00;
     30-39 13 * * * 0.00;
     40-49 13 * * * 0.00;
     50-59 13 * * * 0.41;
     0-9 14 * * * 0.00;
     10-19 14 * * * 0.12;
     20-29 14 * * * 0.00;
     30-39 14 * * * 0.92;
     40-49 14 * * * 0.30;
     50-59 14 * * * 0.00;
     0-9 15 * * * 0.78;
     10-19 15 * * * 0.00;
     20-29 15 * * * 0.00;
     30-39 15 * * * 0.00;
     40-49 15 * * * 0.00;
     50-59 15 * * * 0.00;
     0-9 16 * * * 0.00;
     10-19 16 * * * 0.00;
     20-29 16 * * * 0.00;
     30-39 16 * * * 0.00;
     40-49 16 * * * 0.00;
     50-59 16 * * * 0.25;
//    50-59 16 * * * 5;
     0-9 17 * * * 0.00;
     10-19 17 * * * 0.00;
     20-29 17 * * * 0.00;
     30-39 17 * * * 0.00;
     40-49 17 * * * 0.00;
     50-59 17 * * * 0.00;
     0-9 18 * * * 0.00;
     10-19 18 * * * 0.16;
     20-29 18 * * * 0.00;
     30-39 18 * * * 0.00;
     40-49 18 * * * 0.00;
     50-59 18 * * * 0.00;
     0-9 19 * * * 0.00;
     10-19 19 * * * 0.00;
     20-29 19 * * * 0.00;
     30-39 19 * * * 0.00;
     40-49 19 * * * 0.00;
     50-59 19 * * * 0.00;
     0-9 20 * * * 0.00;
     10-19 20 * * * 0.00;
     20-29 20 * * * 0.00;
     30-39 20 * * * 0.00;
     40-49 20 * * * 0.00;
     50-59 20 * * * 0.00;
     0-9 21 * * * 0.00;
     10-19 21 * * * 0.00;
     20-29 21 * * * 0.00;
     30-39 21 * * * 0.00;
     40-49 21 * * * 0.00;
     50-59 21 * * * 0.00;
     0-9 22 * * * 0.00;
     10-19 22 * * * 0.00;
     20-29 22 * * * 0.00;
     30-39 22 * * * 0.00;
     40-49 22 * * * 0.00;
     50-59 22 * * * 0.00;
     0-9 23 * * * 0.00;
     10-19 23 * * * 0.00;
     20-29 23 * * * 0.00;
     30-39 23 * * * 0.00;
     40-49 23 * * * 0.00;
     50-59 23 * * * 0.00;
}
schedule price {
     0-9 0 * * * 0.1;
     10-19 0 * * * 0.1;
     20-29 0 * * * 0.1;
     30-39 0 * * * 0.1;
     40-49 0 * * * 0.1;
     50-59 0 * * * 0.1;
     0-9 1 * * * 0.1;
     10-19 1 * * * 0.1;
     20-29 1 * * * 0.1;
     30-39 1 * * * 0.1;
     40-49 1 * * * 0.1;
     50-59 1 * * * 0.1;
     0-9 2 * * * 0.1;
     10-19 2 * * * 0.1;
     20-29 2 * * * 0.1;
     30-39 2 * * * 0.1;
     40-49 2 * * * 0.1;
     50-59 2 * * * 0.1;
     0-9 3 * * * 0.1;
     10-19 3 * * * 0.1;
     20-29 3 * * * 0.1;
     30-39 3 * * * 0.1;
     40-49 3 * * * 0.1;
     50-59 3 * * * 0.1;
     0-9 4 * * * 0.1;
     10-19 4 * * * 0.1;
     20-29 4 * * * 0.1;
     30-39 4 * * * 0.1;
     40-49 4 * * * 0.1;
     50-59 4 * * * 0.1;
     0-9 5 * * * 0.1;
     10-19 5 * * * 0.1;
     20-29 5 * * * 0.1;
     30-39 5 * * * 0.1;
     40-49 5 * * * 0.1;
     50-59 5 * * * 0.1;
     0-9 6 * * * 0.1;
     10-19 6 * * * 0.1;
     20-29 6 * * * 0.1;
     30-39 6 * * * 0.1;
     40-49 6 * * * 0.1;
     50-59 6 * * * 0.1;
     0-9 7 * * * 0.1;
     10-19 7 * * * 0.1;
     20-29 7 * * * 0.1;
     30-39 7 * * * 0.1;
     40-49 7 * * * 0.1;
     50-59 7 * * * 0.1;
     0-9 8 * * * 0.1;
     10-19 8 * * * 0.1;
     20-29 8 * * * 0.1;
     30-39 8 * * * 0.1;
     40-49 8 * * * 0.1;
     50-59 8 * * * 0.1;
     0-9 9 * * * 0.1;
     10-19 9 * * * 0.1;
     20-29 9 * * * 0.1;
     30-39 9 * * * 0.1;
     40-49 9 * * * 0.1;
     50-59 9 * * * 0.1;
     0-9 10 * * * 0.1;
     10-19 10 * * * 0.1;
     20-29 10 * * * 0.1;
     30-39 10 * * * 0.1;
     40-49 10 * * * 0.1;
     50-59 10 * * * 0.1;
     0-9 11 * * * 0.1;
     10-19 11 * * * 0.1;
     20-29 11 * * * 0.1;
     30-39 11 * * * 0.1;
     40-49 11 * * * 0.1;
     50-59 11 * * * 0.1;
     0-9 12 * * * 0.1;
     10-19 12 * * * 0.1;
     20-29 12 * * * 0.1;
     30-39 12 * * * 0.1;
     40-49 12 * * * 0.1;
     50-59 12 * * * 0.1;
     0-9 13 * * * 0.1;
     10-19 13 * * * 0.1;
     20-29 13 * * * 0.1;
     30-39 13 * * * 0.1;
     40-49 13 * * * 0.1;
     50-59 13 * * * 0.1;
     0-9 14 * * * 0.1;
     10-19 14 * * * 0.1;
     20-29 14 * * * 0.1;
     30-39 14 * * * 0.1;
     40-49 14 * * * 0.1;
     50-59 14 * * * 0.1;
     0-9 15 * * * 0.1;
     10-19 15 * * * 0.1;
     20-29 15 * * * 0.1;
     30-39 15 * * * 0.1;
     40-49 15 * * * 0.1;
     50-59 15 * * * 0.1;
     0-9 16 * * * 0.1;
     10-19 16 * * * 0.1;
     20-29 16 * * * 0.1;
     30-39 16 * * * 0.1;
     40-49 16 * * * 0.1;
     50-59 16 * * * 0.1;
//    50-59 16 * * * 0.1;
     0-9 17 * * * 0.1;
     10-19 17 * * * 0.1;
     20-29 17 * * * 0.1;
     30-39 17 * * * 0.1;
     40-49 17 * * * 0.1;
     50-59 17 * * * 0.1;
     0-9 18 * * * 0.1;
     10-19 18 * * * 0.1;
     20-29 18 * * * 0.1;
     30-39 18 * * * 0.1;
     40-49 18 * * * 0.1;
     50-59 18 * * * 0.1;
     0-9 19 * * * 0.1;
     10-19 19 * * * 0.1;
     20-29 19 * * * 0.1;
     30-39 19 * * * 0.1;
     40-49 19 * * * 0.1;
     50-59 19 * * * 0.1;
     0-9 20 * * * 0.1;
     10-19 20 * * * 0.1;
     20-29 20 * * * 0.1;
     30-39 20 * * * 0.1;
     40-49 20 * * * 0.1;
     50-59 20 * * * 0.1;
     0-9 21 * * * 0.1;
     10-19 21 * * * 0.1;
     20-29 21 * * * 0.1;
     30-39 21 * * * 0.1;
     40-49 21 * * * 0.1;
     50-59 21 * * * 0.1;
     0-9 22 * * * 0.1;
     10-19 22 * * * 0.1;
     20-29 22 * * * 0.1;
     30-39 22 * * * 0.1;
     40-49 22 * * * 0.1;
     50-59 22 * * * 0.1;
     0-9 23 * * * 0.1;
     10-19 23 * * * 0.1;
     20-29 23 * * * 0.1;
     30-39 23 * * * 0.1;
     40-49 23 * * * 0.1;
     50-59 23 * * * 0.1;
}
schedule setpoint {
     0-9 16 * * * 120;
     10-19 16 * * * 120;
     20-29 16 * * * 120;
     30-39 16 * * * 120;
     40-49 16 * * * 120;
     50-59 16 * * * 120;
     0-9 17 * * * 118;
     10-19 17 * * * 118;
     20-29 17 * * * 118;
     30-39 17 * * * 118;
     40-49 17 * * * 118;
     50-59 17 * * * 118;
     0-9 18 * * * 118;
     10-19 18 * * * 118;
     20-29 18 * * * 118;
     30-39 18 * * * 118;
     40-49 18 * * * 118;
     50-59 18 * * * 118;
     0-9 19 * * * 120;
     10-19 19 * * * 120;
     20-29 19 * * * 120;
     30-39 19 * * * 120;
     40-49 19 * * * 120;
     50-59 19 * * * 120;
     0-9 20 * * * 120;
     10-19 20 * * * 120;
     20-29 20 * * * 120;
     30-39 20 * * * 120;
     40-49 20 * * * 120;
     50-59 20 * * * 120;
     0-9 21 * * * 120;
     10-19 21 * * * 120;
     20-29 21 * * * 120;
     30-39 21 * * * 120;
     40-49 21 * * * 120;
     50-59 21 * * * 120;
     0-9 22 * * * 120;
     10-19 22 * * * 120;
     20-29 22 * * * 120;
     30-39 22 * * * 120;
     40-49 22 * * * 120;
     50-59 22 * * * 120;
     0-9 23 * * * 120;
     10-19 23 * * * 120;
     20-29 23 * * * 120;
     30-39 23 * * * 120;
     40-49 23 * * * 120;
     50-59 23 * * * 120;
     0-9 0 * * * 120;
     10-19 0 * * * 120;
     20-29 0 * * * 120;
     30-39 0 * * * 120;
     40-49 0 * * * 120;
     50-59 0 * * * 120;
     0-9 1 * * * 120;
     10-19 1 * * * 120;
     20-29 1 * * * 120;
     30-39 1 * * * 120;
     40-49 1 * * * 120;
     50-59 1 * * * 120;
     0-9 2 * * * 120;
     10-19 2 * * * 120;
     20-29 2 * * * 120;
     30-39 2 * * * 120;
     40-49 2 * * * 120;
     50-59 2 * * * 120;
     0-9 3 * * * 120;
     10-19 3 * * * 120;
     20-29 3 * * * 120;
     30-39 3 * * * 120;
     40-49 3 * * * 120;
     50-59 3 * * * 120;
     0-9 4 * * * 120;
     10-19 4 * * * 120;
     20-29 4 * * * 120;
     30-39 4 * * * 120;
     40-49 4 * * * 120;
     50-59 4 * * * 120;
     0-9 5 * * * 120;
     10-19 5 * * * 120;
     20-29 5 * * * 120;
     30-39 5 * * * 120;
     40-49 5 * * * 120;
     50-59 5 * * * 120;
     0-9 6 * * * 120;
     10-19 6 * * * 120;
     20-29 6 * * * 120;
     30-39 6 * * * 120;
     40-49 6 * * * 120;
     50-59 6 * * * 120;
     0-9 7 * * * 120;
     10-19 7 * * * 120;
     20-29 7 * * * 120;
     30-39 7 * * * 120;
     40-49 7 * * * 120;
     50-59 7 * * * 120;
     0-9 8 * * * 120;
     10-19 8 * * * 120;
     20-29 8 * * * 120;
     30-39 8 * * * 120;
     40-49 8 * * * 120;
     50-59 8 * * * 120;
     0-9 9 * * * 120;
     10-19 9 * * * 120;
     20-29 9 * * * 120;
     30-39 9 * * * 120;
     40-49 9 * * * 120;
     50-59 9 * * * 120;
     0-9 10 * * * 120;
     10-19 10 * * * 120;
     20-29 10 * * * 120;
     30-39 10 * * * 120;
     40-49 10 * * * 120;
     50-59 10 * * * 120;
     0-9 11 * * * 120;
     10-19 11 * * * 120;
     20-29 11 * * * 120;
     30-39 11 * * * 120;
     40-49 11 * * * 120;
     50-59 11 * * * 120;
     0-9 12 * * * 120;
     10-19 12 * * * 120;
     20-29 12 * * * 120;
     30-39 12 * * * 120;
     40-49 12 * * * 120;
     50-59 12 * * * 120;
     0-9 13 * * * 120;
     10-19 13 * * * 120;
     20-29 13 * * * 120;
     30-39 13 * * * 120;
     40-49 13 * * * 120;
     50-59 13 * * * 120;
     0-9 14 * * * 120;
     10-19 14 * * * 120;
     20-29 14 * * * 120;
     30-39 14 * * * 120;
     40-49 14 * * * 120;
     50-59 14 * * * 120;
     0-9 15 * * * 120;
     10-19 15 * * * 120;
     20-29 15 * * * 120;
     30-39 15 * * * 120;
     40-49 15 * * * 120;
     50-59 15 * * * 120; 
}

module powerflow;
module residential {
    implicit_enduses NONE;
}
module market;
module tape;

class auction {
    double current_price_mean_24h;
    double current_price_stdev_24h;
    double my_avg;
    double my_std;
}

object overhead_line_conductor:100 {
	geometric_mean_radius 0.0244;
	resistance 0.306;
}

object overhead_line_conductor:101 {
	geometric_mean_radius 0.00814;
	resistance 0.592;
}

object line_spacing:200 {
	distance_AB 2.5;
	distance_BC 4.5;
	distance_AC 7.0;
	distance_AN 5.656854;
	distance_BN 4.272002;
	distance_CN 5.0;
}

object line_configuration:300 {
	conductor_A overhead_line_conductor:100;
	conductor_B overhead_line_conductor:100;
	conductor_C overhead_line_conductor:100;
	conductor_N overhead_line_conductor:101;
	spacing line_spacing:200;
}

object transformer_configuration:400 {
	connect_type 1;
	power_rating 6000;
	powerA_rating 2000;
	powerB_rating 2000;
	powerC_rating 2000;
	primary_voltage 12470;
	secondary_voltage 4160;
	resistance 0.01;
	reactance 0.06;
}

object node {
	name node1;
	phases "ABCN";
	voltage_A +7199.558+0.000j;
	voltage_B -3599.779-6235.000j;
	voltage_C -3599.779+6235.000j;
	nominal_voltage 7200;
}

object overhead_line:12 {
	phases "ABCN";
	from node1;
	to node2;
	length 2000;
	configuration line_configuration:300;
}

object node {
	name node2;
	phases "ABCN";
	voltage_A +7199.558+0.000j;
	voltage_B -3599.779-6235.000j;
	voltage_C -3599.779+6235.000j;
	nominal_voltage 7200;
}

object transformer:23 {
	phases "ABCN";
	from node2;
	to node3;
	configuration transformer_configuration:400;
}

object node {
	name node3;
	phases "ABCN";
	voltage_A +2401.777+0.000j;
	voltage_B -1200.889-2080.000j;
	voltage_C -1200.889+2080.000j;
	nominal_voltage 2400;
}

object overhead_line:34 {
	phases "ABCN";
	from node3;
    to node4;
//	to load4;
	length 2500;
	configuration line_configuration:300;
}
object node {
	name node4;
	phases "ABCN";
	voltage_A +2401.777+0.000j;
	voltage_B -1200.889-2080.000j;
	voltage_C -1200.889+2080.000j;
	nominal_voltage 2400;
}



///////////////////////////////
// TRIPLEX OBJECTS
///////////////////////////////

    ///////////////////////////////
    // CONFIGURATIONS
    ///////////////////////////////

object triplex_line_conductor {
    name tp_line_conductor;
    resistance 0.97;
    geometric_mean_radius 0.0111;
};

object triplex_line_configuration {
    name triplex_line_configuration_1;
    conductor_1 tp_line_conductor;
    conductor_2 tp_line_conductor;
    conductor_N tp_line_conductor;
    insulation_thickness 0.08;
    diameter 0.368;
}

object transformer_configuration {
    name AS_config;
//    name CS_config;
    connect_type SINGLE_PHASE_CENTER_TAPPED;
    install_type POLETOP;
    powerA_rating 75;
//    powerC_rating 75;
    primary_voltage 2401;
    secondary_voltage 120.000;
    impedance 0.006+0.0136j;
}


    ///////////////////////////////
    // Triplex Lines, Nodes, and Transformers
    ///////////////////////////////

object transformer {
	name center_tap_1; 
	phases AS; 
	from node4; 
	to main_meter; 
	configuration AS_config;
}

object triplex_meter {
    name main_meter;
    phases AS;
    nominal_voltage 120;
    object recorder {
        name main_rec;
        file "main_meter.csv";
        property measured_real_power;
        interval 30;
    };
}

object triplex_line {
    name main_line2; 
    phases AS; 
    from main_meter; 
    to trip_node1; 
    length 0; 
    configuration triplex_line_configuration_1;
}

object triplex_node {
	name trip_node1; 
	phases AS; 
	nominal_voltage 120;        
}

object triplex_line {
	name trip_line1; 
	phases AS; 
	from trip_node1; 
	to trip_meter1; 
	length 0; 
	configuration triplex_line_configuration_1;
}

object triplex_line {
    name trip_line2; 
    phases AS; 
    from trip_node1; 
    to trip_meter2; 
    length 0; 
    configuration triplex_line_configuration_1;
}

object triplex_meter {
    name trip_meter1;
    phases AS;
    nominal_voltage 120;
    object recorder {
        name rec;
        file "house_meter_cont.csv";
        property measured_real_power;
        interval 30;
    };
}

object triplex_meter {
    name trip_meter2;
    phases AS;
    nominal_voltage 120;
    object recorder {
        name rec2;
        file "house_meter_cont.csv";
        property measured_real_power;
        interval 30;
    };
}
object triplex_load {
    name ev1;
    phases AS;
    parent trip_meter1;
    voltage_1 120+0j;
    voltage_2 120+0j;
    voltage_N 0;
    nominal_voltage 120;
    object player {
        name ev1_player;
        property constant_power_1;
        file "EV1.csv";
    };
}
object triplex_load {
    name ev2;
    phases AS;
    parent trip_meter2;
    voltage_1 120+0j;
    voltage_2 120+0j;
    voltage_N 0;
    nominal_voltage 120;
    object player {
        name ev2_player;
        property constant_power_1;
        file "EV2.csv";
    };
}

//load_state define if we're filling or draining the tank
